/*--------------------------------*- C++ -*----------------------------------*\
  =========                 |
  \\      /  F ield         | OpenFOAM: The Open Source CFD Toolbox
   \\    /   O peration     | Website:  https://openfoam.org
    \\  /    A nd           | Version:  7
     \\/     M anipulation  |
\*---------------------------------------------------------------------------*/
FoamFile
{
    version     2.0;
    format      binary;
    class       polyBoundaryMesh;
    location    "constant/polyMesh";
    object      boundary;
}
// * * * * * * * * * * * * * * * * * * * * * * * * * * * * * * * * * * * * * //

6
(
    leftWall
    {
        type            patch;
        nFaces          800;
        startFace       100996;
    }
    rightWall
    {
        type            patch;
        nFaces          800;
        startFace       101796;
    }
    lowerWall
    {
        type            wall;
        inGroups        List<word> 1(wall);
        nFaces          4000;
        startFace       102596;
    }
    upperWall
    {
        type            patch;
        nFaces          2200;
        startFace       106596;
    }
    frontWall
    {
        type            patch;
        nFaces          704;
        startFace       108796;
    }
    backWall
    {
        type            patch;
        nFaces          704;
        startFace       109500;
    }
)

// ************************************************************************* //
