/*--------------------------------*- C++ -*----------------------------------*\
  =========                 |
  \\      /  F ield         | OpenFOAM: The Open Source CFD Toolbox
   \\    /   O peration     | Website:  https://openfoam.org
    \\  /    A nd           | Version:  7
     \\/     M anipulation  |
\*---------------------------------------------------------------------------*/
FoamFile
{
    version     2.0;
    format      binary;
    class       polyBoundaryMesh;
    location    "constant/polyMesh";
    object      boundary;
}
// * * * * * * * * * * * * * * * * * * * * * * * * * * * * * * * * * * * * * //

6
(
    leftWall
    {
        type            patch;
        nFaces          1350;
        startFace       157650;
    }
    rightWall
    {
        type            patch;
        nFaces          1350;
        startFace       159000;
    }
    lowerWall
    {
        type            wall;
        inGroups        List<word> 1(wall);
        nFaces          1800;
        startFace       160350;
    }
    upperWall
    {
        type            patch;
        nFaces          1800;
        startFace       162150;
    }
    frontWall
    {
        type            patch;
        nFaces          1200;
        startFace       163950;
    }
    backWall
    {
        type            patch;
        nFaces          1200;
        startFace       165150;
    }
)

// ************************************************************************* //
