/*--------------------------------*- C++ -*----------------------------------*\
  =========                 |
  \\      /  F ield         | OpenFOAM: The Open Source CFD Toolbox
   \\    /   O peration     | Website:  https://openfoam.org
    \\  /    A nd           | Version:  7
     \\/     M anipulation  |
\*---------------------------------------------------------------------------*/
FoamFile
{
    version     2.0;
    format      binary;
    class       polyBoundaryMesh;
    location    "constant/polyMesh";
    object      boundary;
}
// * * * * * * * * * * * * * * * * * * * * * * * * * * * * * * * * * * * * * //

6
(
    leftWall
    {
        type            patch;
        nFaces          495;
        startFace       64564;
    }
    rightWall
    {
        type            patch;
        nFaces          495;
        startFace       65059;
    }
    lowerWall
    {
        type            wall;
        inGroups        List<word> 1(wall);
        nFaces          3420;
        startFace       65554;
    }
    upperWall
    {
        type            patch;
        nFaces          2070;
        startFace       68974;
    }
    frontWall
    {
        type            patch;
        nFaces          506;
        startFace       71044;
    }
    backWall
    {
        type            patch;
        nFaces          506;
        startFace       71550;
    }
)

// ************************************************************************* //
