/*--------------------------------*- C++ -*----------------------------------*\
  =========                 |
  \\      /  F ield         | OpenFOAM: The Open Source CFD Toolbox
   \\    /   O peration     | Website:  https://openfoam.org
    \\  /    A nd           | Version:  7
     \\/     M anipulation  |
\*---------------------------------------------------------------------------*/
FoamFile
{
    version     2.0;
    format      binary;
    class       polyBoundaryMesh;
    location    "constant/polyMesh";
    object      boundary;
}
// * * * * * * * * * * * * * * * * * * * * * * * * * * * * * * * * * * * * * //

6
(
    leftWall
    {
        type            patch;
        nFaces          630;
        startFace       82921;
    }
    rightWall
    {
        type            patch;
        nFaces          630;
        startFace       83551;
    }
    lowerWall
    {
        type            wall;
        inGroups        List<word> 1(wall);
        nFaces          3420;
        startFace       84181;
    }
    upperWall
    {
        type            patch;
        nFaces          2070;
        startFace       87601;
    }
    frontWall
    {
        type            patch;
        nFaces          644;
        startFace       89671;
    }
    backWall
    {
        type            patch;
        nFaces          644;
        startFace       90315;
    }
)

// ************************************************************************* //
